L24/1726534/GD.dss
! GERACAO DISTRIBUIDA — gerada de UGBT_tab e UGMT_tab
! Unidades com potencia nula sao omitidas (gerariam NaN).
! 109 unidades descartadas por potencia nula.
! 435 unidades de BT realocadas para o secundario do transformador (rede secundaria nao modelada).
! 0 unidades descartadas por ponto de conexao ausente da rede.
! irradiance=1 — ver o docstring: 1,0 e meio-dia de ceu claro, nao a ponta de carga.
! 5 barras tiveram a GD limitada a capacidade do transformador (42 kW cortados).
! inversores em pf=1 — ver o docstring de _pv: 0,92 e capacidade exigida pelo PRODIST, nao despacho.
! 0 unidades de MT ligadas pelo PAC da carga (casadas por CEG_GD): o PAC da UGMT nao existe na SSDMT.
New PVSystem.GD_b31b1e45856a01fa1402657d29a55720305296daaeb1152c47947a7ea77388cf phases=3 bus1=node_112262103.1.2.3 conn=wye kv=13.8000 pf=1 pmpp=107.79 kva=107.79 irradiance=1 temperature=25 %cutin=20 %cutout=20 effcurve=MyEff P-TCurve=MyPvsT Daily=IRRAD_DIA TDaily=TEMP_DIA
New PVSystem.GD_47ba8fb4099130ec6a0a8c85910c21ef3629d722a1d90b115384b9a6cd7795b2 phases=3 bus1=node_111608126.1.2.3 conn=wye kv=13.8000 pf=1 pmpp=40.17 kva=40.17 irradiance=1 temperature=25 %cutin=20 %cutout=20 effcurve=MyEff P-TCurve=MyPvsT Daily=IRRAD_DIA TDaily=TEMP_DIA
New PVSystem.GD_5d0444cce9cdb2e3e73b12a9bf375fce5b377642bae34d5f39a695f91bc87a8b phases=3 bus1=node_112262233.1.2.3 conn=wye kv=13.8000 pf=1 pmpp=22.53 kva=22.53 irradiance=1 temperature=25 %cutin=20 %cutout=20 effcurve=MyEff P-TCurve=MyPvsT Daily=IRRAD_DIA TDaily=TEMP_DIA
New PVSystem.GD_f18155418c79cbbd9f8d0f93694bed980b8bca9ebdc9f353f3d3809db0aeb10d phases=3 bus1=node_2288895314.1.2.3 conn=wye kv=13.8000 pf=1 pmpp=154.25 kva=154.25 irradiance=1 temperature=25 %cutin=20 %cutout=20 effcurve=MyEff P-TCurve=MyPvsT Daily=IRRAD_DIA TDaily=TEMP_DIA
New PVSystem.GD_418a936734f1f36089ef2265d0e2b77c682cc2c82984e3c2b016a6a8478fd640_1 phases=1 bus1=node_414845865.1.4 conn=wye kv=0.1200 pf=1 pmpp=1.17 kva=1.17 irradiance=1 temperature=25 %cutin=20 %cutout=20 effcurve=MyEff P-TCurve=MyPvsT Daily=IRRAD_DIA TDaily=TEMP_DIA
New PVSystem.GD_418a936734f1f36089ef2265d0e2b77c682cc2c82984e3c2b016a6a8478fd640_2 phases=1 bus1=node_414845865.2.4 conn=wye kv=0.1200 pf=1 pmpp=1.17 kva=1.17 irradiance=1 temperature=25 %cutin=20 %cutout=20 effcurve=MyEff P-TCurve=MyPvsT Daily=IRRAD_DIA TDaily=TEMP_DIA
New PVSystem.GD_06edbabc622d1d7a5e44037644e4ce0c353b68e37fac09e400047df3e4aab7ad_1 phases=1 bus1=node_414845865.1.4 conn=wye kv=0.1200 pf=1 pmpp=1.82 kva=1.82 irradiance=1 temperature=25 %cutin=20 %cutout=20 effcurve=MyEff P-TCurve=MyPvsT Daily=IRRAD_DIA TDaily=TEMP_DIA
New PVSystem.GD_06edbabc622d1d7a5e44037644e4ce0c353b68e37fac09e400047df3e4aab7ad_2 phases=1 bus1=node_414845865.2.4 conn=wye kv=0.1200 pf=1 pmpp=1.82 kva=1.82 irradiance=1 temperature=25 %cutin=20 %cutout=20 effcurve=MyEff P-TCurve=MyPvsT Daily=IRRAD_DIA TDaily=TEMP_DIA
New PVSystem.GD_421a48272f6f5a24d4dac206a6d7bf6fb56ef57b23c83dbb8679b8e0e3fd6ada_1 phases=1 bus1=node_414845865.1.4 conn=wye kv=0.1200 pf=1 pmpp=0.76 kva=0.76 irradiance=1 temperature=25 %cutin=20 %cutout=20 effcurve=MyEff P-TCurve=MyPvsT Daily=IRRAD_DIA TDaily=TEMP_DIA
New PVSystem.GD_421a48272f6f5a24d4dac206a6d7bf6fb56ef57b23c83dbb8679b8e0e3fd6ada_2 phases=1 bus1=node_414845865.2.4 conn=wye kv=0.1200 pf=1 pmpp=0.76 kva=0.76 irradiance=1 temperature=25 %cutin=20 %cutout=20 effcurve=MyEff P-TCurve=MyPvsT Daily=IRRAD_DIA TDaily=TEMP_DIA
New PVSystem.GD_86079dc78ae75a740c5fcc3dbd0696ab3983eefecd97d5537eea56996fc777d5_1 phases=1 bus1=node_414125050.1.4 conn=wye kv=0.1270 pf=1 pmpp=3.11 kva=3.11 irradiance=1 temperature=25 %cutin=20 %cutout=20 effcurve=MyEff P-TCurve=MyPvsT Daily=IRRAD_DIA TDaily=TEMP_DIA
New PVSystem.GD_86079dc78ae75a740c5fcc3dbd0696ab3983eefecd97d5537eea56996fc777d5_2 phases=1 bus1=node_414125050.2.4 conn=wye kv=0.1270 pf=1 pmpp=3.11 kva=3.11 irradiance=1 temperature=25 %cutin=20 %cutout=20 effcurve=MyEff P-TCurve=MyPvsT Daily=IRRAD_DIA TDaily=TEMP_DIA
New PVSystem.GD_86079dc78ae75a740c5fcc3dbd0696ab3983eefecd97d5537eea56996fc777d5_3 phases=1 bus1=node_414125050.3.4 conn=wye kv=0.1270 pf=1 pmpp=3.11 kva=3.11 irradiance=1 temperature=25 %cutin=20 %cutout=20 effcurve=MyEff P-TCurve=MyPvsT Daily=IRRAD_DIA TDaily=TEMP_DIA
New PVSystem.GD_c9e5776356253c31c49281fa33cefb1af67199c6d06c59650792dad0b615162e_1 phases=1 bus1=node_414125050.1.4 conn=wye kv=0.1270 pf=1 pmpp=0.52 kva=0.52 irradiance=1 temperature=25 %cutin=20 %cutout=20 effcurve=MyEff P-TCurve=MyPvsT Daily=IRRAD_DIA TDaily=TEMP_DIA
New PVSystem.GD_c9e5776356253c31c49281fa33cefb1af67199c6d06c59650792dad0b615162e_2 phases=1 bus1=node_414125050.2.4 conn=wye kv=0.1270 pf=1 pmpp=0.52 kva=0.52 irradiance=1 temperature=25 %cutin=20 %cutout=20 effcurve=MyEff P-TCurve=MyPvsT Daily=IRRAD_DIA TDaily=TEMP_DIA
New PVSystem.GD_c9e5776356253c31c49281fa33cefb1af67199c6d06c59650792dad0b615162e_3 phases=1 bus1=node_414125050.3.4 conn=wye kv=0.1270 pf=1 pmpp=0.52 kva=0.52 irradiance=1 temperature=25 %cutin=20 %cutout=20 effcurve=MyEff P-TCurve=MyPvsT Daily=IRRAD_DIA TDaily=TEMP_DIA
New PVSystem.GD_e86aa2bdc5a6e80feeb0a5e00e3346455fd67c234956eb161e586f48daf147ee_1 phases=1 bus1=node_414125050.1.4 conn=wye kv=0.1270 pf=1 pmpp=0.20 kva=0.20 irradiance=1 temperature=25 %cutin=20 %cutout=20 effcurve=MyEff P-TCurve=MyPvsT Daily=IRRAD_DIA TDaily=TEMP_DIA
New PVSystem.GD_e86aa2bdc5a6e80feeb0a5e00e3346455fd67c234956eb161e586f48daf147ee_2 phases=1 bus1=node_414125050.2.4 conn=wye kv=0.1270 pf=1 pmpp=0.20 kva=0.20 irradiance=1 temperature=25 %cutin=20 %cutout=20 effcurve=MyEff P-TCurve=MyPvsT Daily=IRRAD_DIA TDaily=TEMP_DIA
New PVSystem.GD_e86aa2bdc5a6e80feeb0a5e00e3346455fd67c234956eb161e586f48daf147ee_3 phases=1 bus1=node_414125050.3.4 conn=wye kv=0.1270 pf=1 pmpp=0.20 kva=0.20 irradiance=1 temperature=25 %cutin=20 %cutout=20 effcurve=MyEff P-TCurve=MyPvsT Daily=IRRAD_DIA TDaily=TEMP_DIA
New PVSystem.GD_aa520382eabe6fd902d38ce0a5ab22e90fd3d441b6e6d0b350de4441a287555e_1 phases=1 bus1=node_414125050.1.4 conn=wye kv=0.1270 pf=1 pmpp=4.07 kva=4.07 irradiance=1 temperature=25 %cutin=20 %cutout=20 effcurve=MyEff P-TCurve=MyPvsT Daily=IRRAD_DIA TDaily=TEMP_DIA
New PVSystem.GD_aa520382eabe6fd902d38ce0a5ab22e90fd3d441b6e6d0b350de4441a287555e_2 phases=1 bus1=node_414125050.2.4 conn=wye kv=0.1270 pf=1 pmpp=4.07 kva=4.07 irradiance=1 temperature=25 %cutin=20 %cutout=20 effcurve=MyEff P-TCurve=MyPvsT Daily=IRRAD_DIA TDaily=TEMP_DIA
New PVSystem.GD_aa520382eabe6fd902d38ce0a5ab22e90fd3d441b6e6d0b350de4441a287555e_3 phases=1 bus1=node_414125050.3.4 conn=wye kv=0.1270 pf=1 pmpp=4.07 kva=4.07 irradiance=1 temperature=25 %cutin=20 %cutout=20 effcurve=MyEff P-TCurve=MyPvsT Daily=IRRAD_DIA TDaily=TEMP_DIA
New PVSystem.GD_f28a00c1382d27bfbd1cc917eb7b650c3868aa7a96a327532f3399f82dd18a9c_1 phases=1 bus1=node_414122065.1.4 conn=wye kv=0.1270 pf=1 pmpp=0.42 kva=0.42 irradiance=1 temperature=25 %cutin=20 %cutout=20 effcurve=MyEff P-TCurve=MyPvsT Daily=IRRAD_DIA TDaily=TEMP_DIA
New PVSystem.GD_f28a00c1382d27bfbd1cc917eb7b650c3868aa7a96a327532f3399f82dd18a9c_2 phases=1 bus1=node_414122065.2.4 conn=wye kv=0.1270 pf=1 pmpp=0.42 kva=0.42 irradiance=1 temperature=25 %cutin=20 %cutout=20 effcurve=MyEff P-TCurve=MyPvsT Daily=IRRAD_DIA TDaily=TEMP_DIA
New PVSystem.GD_f28a00c1382d27bfbd1cc917eb7b650c3868aa7a96a327532f3399f82dd18a9c_3 phases=1 bus1=node_414122065.3.4 conn=wye kv=0.1270 pf=1 pmpp=0.42 kva=0.42 irradiance=1 temperature=25 %cutin=20 %cutout=20 effcurve=MyEff P-TCurve=MyPvsT Daily=IRRAD_DIA TDaily=TEMP_DIA
New PVSystem.GD_90314a2bda846cc5e999a794779b43698f2291611897d954b2fd94f9e0250003_1 phases=1 bus1=node_414122065.1.4 conn=wye kv=0.1270 pf=1 pmpp=0.54 kva=0.54 irradiance=1 temperature=25 %cutin=20 %cutout=20 effcurve=MyEff P-TCurve=MyPvsT Daily=IRRAD_DIA TDaily=TEMP_DIA
New PVSystem.GD_90314a2bda846cc5e999a794779b43698f2291611897d954b2fd94f9e0250003_2 phases=1 bus1=node_414122065.2.4 conn=wye kv=0.1270 pf=1 pmpp=0.54 kva=0.54 irradiance=1 temperature=25 %cutin=20 %cutout=20 effcurve=MyEff P-TCurve=MyPvsT Daily=IRRAD_DIA TDaily=TEMP_DIA
New PVSystem.GD_90314a2bda846cc5e999a794779b43698f2291611897d954b2fd94f9e0250003_3 phases=1 bus1=node_414122065.3.4 conn=wye kv=0.1270 pf=1 pmpp=0.54 kva=0.54 irradiance=1 temperature=25 %cutin=20 %cutout=20 effcurve=MyEff P-TCurve=MyPvsT Daily=IRRAD_DIA TDaily=TEMP_DIA
New PVSystem.GD_a5e9288ce7b0ae849524b476f9e00e0d1d1b2ade2fe0c3dd2360fc97fad3ecc4_1 phases=1 bus1=node_414122065.1.4 conn=wye kv=0.1270 pf=1 pmpp=0.62 kva=0.62 irradiance=1 temperature=25 %cutin=20 %cutout=20 effcurve=MyEff P-TCurve=MyPvsT Daily=IRRAD_DIA TDaily=TEMP_DIA
New PVSystem.GD_a5e9288ce7b0ae849524b476f9e00e0d1d1b2ade2fe0c3dd2360fc97fad3ecc4_2 phases=1 bus1=node_414122065.2.4 conn=wye kv=0.1270 pf=1 pmpp=0.62 kva=0.62 irradiance=1 temperature=25 %cutin=20 %cutout=20 effcurve=MyEff P-TCurve=MyPvsT Daily=IRRAD_DIA TDaily=TEMP_DIA
New PVSystem.GD_a5e9288ce7b0ae849524b476f9e00e0d1d1b2ade2fe0c3dd2360fc97fad3ecc4_3 phases=1 bus1=node_414122065.3.4 conn=wye kv=0.1270 pf=1 pmpp=0.62 kva=0.62 irradiance=1 temperature=25 %cutin=20 %cutout=20 effcurve=MyEff P-TCurve=MyPvsT Daily=IRRAD_DIA TDaily=TEMP_DIA
New PVSystem.GD_d4c5dc3bf5259fb733b6293d848e661c7a03c1ed67669621aed61d3be48b4986_1 phases=1 bus1=node_414122065.1.4 conn=wye kv=0.1270 pf=1 pmpp=1.11 kva=1.11 irradiance=1 temperature=25 %cutin=20 %cutout=20 effcurve=MyEff P-TCurve=MyPvsT Daily=IRRAD_DIA TDaily=TEMP_DIA
New PVSystem.GD_d4c5dc3bf5259fb733b6293d848e661c7a03c1ed67669621aed61d3be48b4986_2 phases=1 bus1=node_414122065.2.4 conn=wye kv=0.1270 pf=1 pmpp=1.11 kva=1.11 irradiance=1 temperature=25 %cutin=20 %cutout=20 effcurve=MyEff P-TCurve=MyPvsT Daily=IRRAD_DIA TDaily=TEMP_DIA
New PVSystem.GD_d4c5dc3bf5259fb733b6293d848e661c7a03c1ed67669621aed61d3be48b4986_3 phases=1 bus1=node_414122065.3.4 conn=wye kv=0.1270 pf=1 pmpp=1.11 kva=1.11 irradiance=1 temperature=25 %cutin=20 %cutout=20 effcurve=MyEff P-TCurve=MyPvsT Daily=IRRAD_DIA TDaily=TEMP_DIA
New PVSystem.GD_bfcd9a0a05c56a936e35760eebb8be54e8dcf6d6bdea8d4e943cade95cddf45d_1 phases=1 bus1=node_414122065.1.4 conn=wye kv=0.1270 pf=1 pmpp=0.24 kva=0.24 irradiance=1 temperature=25 %cutin=20 %cutout=20 effcurve=MyEff P-TCurve=MyPvsT Daily=IRRAD_DIA TDaily=TEMP_DIA
New PVSystem.GD_bfcd9a0a05c56a936e35760eebb8be54e8dcf6d6bdea8d4e943cade95cddf45d_2 phases=1 bus1=node_414122065.2.4 conn=wye kv=0.1270 pf=1 pmpp=0.24 kva=0.24 irradiance=1 temperature=25 %cutin=20 %cutout=20 effcurve=MyEff P-TCurve=MyPvsT Daily=IRRAD_DIA TDaily=TEMP_DIA
New PVSystem.GD_bfcd9a0a05c56a936e35760eebb8be54e8dcf6d6bdea8d4e943cade95cddf45d_3 phases=1 bus1=node_414122065.3.4 conn=wye kv=0.1270 pf=1 pmpp=0.24 kva=0.24 irradiance=1 temperature=25 %cutin=20 %cutout=20 effcurve=MyEff P-TCurve=MyPvsT Daily=IRRAD_DIA TDaily=TEMP_DIA
New PVSystem.GD_854d51bf8c67f4fb8dd5af5956069644943afccd41753fe57ca72e2e758f76fe_1 phases=1 bus1=node_414122065.1.4 conn=wye kv=0.1270 pf=1 pmpp=0.40 kva=0.40 irradiance=1 temperature=25 %cutin=20 %cutout=20 effcurve=MyEff P-TCurve=MyPvsT Daily=IRRAD_DIA TDaily=TEMP_DIA
New PVSystem.GD_854d51bf8c67f4fb8dd5af5956069644943afccd41753fe57ca72e2e758f76fe_2 phases=1 bus1=node_414122065.2.4 conn=wye kv=0.1270 pf=1 pmpp=0.40 kva=0.40 irradiance=1 temperature=25 %cutin=20 %cutout=20 effcurve=MyEff P-TCurve=MyPvsT Daily=IRRAD_DIA TDaily=TEMP_DIA
New PVSystem.GD_854d51bf8c67f4fb8dd5af5956069644943afccd41753fe57ca72e2e758f76fe_3 phases=1 bus1=node_414122065.3.4 conn=wye kv=0.1270 pf=1 pmpp=0.40 kva=0.40 irradiance=1 temperature=25 %cutin=20 %cutout=20 effcurve=MyEff P-TCurve=MyPvsT Daily=IRRAD_DIA TDaily=TEMP_DIA
New PVSystem.GD_d9d9e292a3415c84ac7591dd0a90a356c010c99a8de6d061a81a9cb6407c9a83_1 phases=1 bus1=node_403729205.1.4 conn=wye kv=0.1270 pf=1 pmpp=0.05 kva=0.10 irradiance=1 temperature=25 %cutin=20 %cutout=20 effcurve=MyEff P-TCurve=MyPvsT Daily=IRRAD_DIA TDaily=TEMP_DIA
New PVSystem.GD_d9d9e292a3415c84ac7591dd0a90a356c010c99a8de6d061a81a9cb6407c9a83_2 phases=1 bus1=node_403729205.2.4 conn=wye kv=0.1270 pf=1 pmpp=0.05 kva=0.10 irradiance=1 temperature=25 %cutin=20 %cutout=20 effcurve=MyEff P-TCurve=MyPvsT Daily=IRRAD_DIA TDaily=TEMP_DIA
New PVSystem.GD_d9d9e292a3415c84ac7591dd0a90a356c010c99a8de6d061a81a9cb6407c9a83_3 phases=1 bus1=node_403729205.3.4 conn=wye kv=0.1270 pf=1 pmpp=0.05 kva=0.10 irradiance=1 temperature=25 %cutin=20 %cutout=20 effcurve=MyEff P-TCurve=MyPvsT Daily=IRRAD_DIA TDaily=TEMP_DIA
New PVSystem.GD_3e745ac855b80414121927bf0ad02718144e3fe2e03db00b9e05ac073c9ed28c_1 phases=1 bus1=node_403729718.1.4 conn=wye kv=0.1270 pf=1 pmpp=0.72 kva=0.72 irradiance=1 temperature=25 %cutin=20 %cutout=20 effcurve=MyEff P-TCurve=MyPvsT Daily=IRRAD_DIA TDaily=TEMP_DIA
New PVSystem.GD_3e745ac855b80414121927bf0ad02718144e3fe2e03db00b9e05ac073c9ed28c_2 phases=1 bus1=node_403729718.2.4 conn=wye kv=0.1270 pf=1 pmpp=0.72 kva=0.72 irradiance=1 temperature=25 %cutin=20 %cutout=20 effcurve=MyEff P-TCurve=MyPvsT Daily=IRRAD_DIA TDaily=TEMP_DIA
New PVSystem.GD_3e745ac855b80414121927bf0ad02718144e3fe2e03db00b9e05ac073c9ed28c_3 phases=1 bus1=node_403729718.3.4 conn=wye kv=0.1270 pf=1 pmpp=0.72 kva=0.72 irradiance=1 temperature=25 %cutin=20 %cutout=20 effcurve=MyEff P-TCurve=MyPvsT Daily=IRRAD_DIA TDaily=TEMP_DIA
New PVSystem.GD_8bd6f42295e1bd0a1cdf09252854a0bd0fd2ad954c946b2c92e2de7ae84a23eb_1 phases=1 bus1=node_414121963.1.4 conn=wye kv=0.1270 pf=1 pmpp=0.31 kva=0.31 irradiance=1 temperature=25 %cutin=20 %cutout=20 effcurve=MyEff P-TCurve=MyPvsT Daily=IRRAD_DIA TDaily=TEMP_DIA
New PVSystem.GD_8bd6f42295e1bd0a1cdf09252854a0bd0fd2ad954c946b2c92e2de7ae84a23eb_2 phases=1 bus1=node_414121963.2.4 conn=wye kv=0.1270 pf=1 pmpp=0.31 kva=0.31 irradiance=1 temperature=25 %cutin=20 %cutout=20 effcurve=MyEff P-TCurve=MyPvsT Daily=IRRAD_DIA TDaily=TEMP_DIA
New PVSystem.GD_8bd6f42295e1bd0a1cdf09252854a0bd0fd2ad954c946b2c92e2de7ae84a23eb_3 phases=1 bus1=node_414121963.3.4 conn=wye kv=0.1270 pf=1 pmpp=0.31 kva=0.31 irradiance=1 temperature=25 %cutin=20 %cutout=20 effcurve=MyEff P-TCurve=MyPvsT Daily=IRRAD_DIA TDaily=TEMP_DIA
New PVSystem.GD_c459bc519f3afd634cc7929989aa94157188f09ef88e1934b1ae9a14499a0e83_1 phases=1 bus1=node_414121963.1.4 conn=wye kv=0.1270 pf=1 pmpp=2.04 kva=2.04 irradiance=1 temperature=25 %cutin=20 %cutout=20 effcurve=MyEff P-TCurve=MyPvsT Daily=IRRAD_DIA TDaily=TEMP_DIA
New PVSystem.GD_c459bc519f3afd634cc7929989aa94157188f09ef88e1934b1ae9a14499a0e83_2 phases=1 bus1=node_414121963.2.4 conn=wye kv=0.1270 pf=1 pmpp=2.04 kva=2.04 irradiance=1 temperature=25 %cutin=20 %cutout=20 effcurve=MyEff P-TCurve=MyPvsT Daily=IRRAD_DIA TDaily=TEMP_DIA
New PVSystem.GD_c459bc519f3afd634cc7929989aa94157188f09ef88e1934b1ae9a14499a0e83_3 phases=1 bus1=node_414121963.3.4 conn=wye kv=0.1270 pf=1 pmpp=2.04 kva=2.04 irradiance=1 temperature=25 %cutin=20 %cutout=20 effcurve=MyEff P-TCurve=MyPvsT Daily=IRRAD_DIA TDaily=TEMP_DIA
New PVSystem.GD_954143c31238de2cd5b4023f0616b12dc5bcfea4e00a8b3b63627a05fe8f2914_1 phases=1 bus1=node_414121963.1.4 conn=wye kv=0.1270 pf=1 pmpp=1.22 kva=1.22 irradiance=1 temperature=25 %cutin=20 %cutout=20 effcurve=MyEff P-TCurve=MyPvsT Daily=IRRAD_DIA TDaily=TEMP_DIA
New PVSystem.GD_954143c31238de2cd5b4023f0616b12dc5bcfea4e00a8b3b63627a05fe8f2914_2 phases=1 bus1=node_414121963.2.4 conn=wye kv=0.1270 pf=1 pmpp=1.22 kva=1.22 irradiance=1 temperature=25 %cutin=20 %cutout=20 effcurve=MyEff P-TCurve=MyPvsT Daily=IRRAD_DIA TDaily=TEMP_DIA
New PVSystem.GD_954143c31238de2cd5b4023f0616b12dc5bcfea4e00a8b3b63627a05fe8f2914_3 phases=1 bus1=node_414121963.3.4 conn=wye kv=0.1270 pf=1 pmpp=1.22 kva=1.22 irradiance=1 temperature=25 %cutin=20 %cutout=20 effcurve=MyEff P-TCurve=MyPvsT Daily=IRRAD_DIA TDaily=TEMP_DIA
New PVSystem.GD_940397c954432ce2c51c497e023495cbc837e9b919cc2aff9c2bc04d42ab87a7_1 phases=1 bus1=node_416043660.1.4 conn=wye kv=0.1200 pf=1 pmpp=2.91 kva=2.91 irradiance=1 temperature=25 %cutin=20 %cutout=20 effcurve=MyEff P-TCurve=MyPvsT Daily=IRRAD_DIA TDaily=TEMP_DIA
New PVSystem.GD_940397c954432ce2c51c497e023495cbc837e9b919cc2aff9c2bc04d42ab87a7_2 phases=1 bus1=node_416043660.2.4 conn=wye kv=0.1200 pf=1 pmpp=2.91 kva=2.91 irradiance=1 temperature=25 %cutin=20 %cutout=20 effcurve=MyEff P-TCurve=MyPvsT Daily=IRRAD_DIA TDaily=TEMP_DIA
New PVSystem.GD_6377789cf29435319243d4b83ba3bbcd3f844417224449cf44ab56d0a7ec328a_1 phases=1 bus1=node_416043660.1.4 conn=wye kv=0.1200 pf=1 pmpp=2.23 kva=2.23 irradiance=1 temperature=25 %cutin=20 %cutout=20 effcurve=MyEff P-TCurve=MyPvsT Daily=IRRAD_DIA TDaily=TEMP_DIA
New PVSystem.GD_6377789cf29435319243d4b83ba3bbcd3f844417224449cf44ab56d0a7ec328a_2 phases=1 bus1=node_416043660.2.4 conn=wye kv=0.1200 pf=1 pmpp=2.23 kva=2.23 irradiance=1 temperature=25 %cutin=20 %cutout=20 effcurve=MyEff P-TCurve=MyPvsT Daily=IRRAD_DIA TDaily=TEMP_DIA
New PVSystem.GD_c70a70d357fa301f33cdcb02bf62112d7555c46cba15832dcfac5e994ba34a4f_1 phases=1 bus1=node_405225447.1.4 conn=wye kv=0.1270 pf=1 pmpp=0.25 kva=0.25 irradiance=1 temperature=25 %cutin=20 %cutout=20 effcurve=MyEff P-TCurve=MyPvsT Daily=IRRAD_DIA TDaily=TEMP_DIA
New PVSystem.GD_c70a70d357fa301f33cdcb02bf62112d7555c46cba15832dcfac5e994ba34a4f_2 phases=1 bus1=node_405225447.2.4 conn=wye kv=0.1270 pf=1 pmpp=0.25 kva=0.25 irradiance=1 temperature=25 %cutin=20 %cutout=20 effcurve=MyEff P-TCurve=MyPvsT Daily=IRRAD_DIA TDaily=TEMP_DIA
New PVSystem.GD_c70a70d357fa301f33cdcb02bf62112d7555c46cba15832dcfac5e994ba34a4f_3 phases=1 bus1=node_405225447.3.4 conn=wye kv=0.1270 pf=1 pmpp=0.25 kva=0.25 irradiance=1 temperature=25 %cutin=20 %cutout=20 effcurve=MyEff P-TCurve=MyPvsT Daily=IRRAD_DIA TDaily=TEMP_DIA
New PVSystem.GD_043058af03299eafbb2262133d6f574961febe227e4d98703b6e01bf316aaf42_1 phases=1 bus1=node_405225447.1.4 conn=wye kv=0.1270 pf=1 pmpp=0.40 kva=0.40 irradiance=1 temperature=25 %cutin=20 %cutout=20 effcurve=MyEff P-TCurve=MyPvsT Daily=IRRAD_DIA TDaily=TEMP_DIA
New PVSystem.GD_043058af03299eafbb2262133d6f574961febe227e4d98703b6e01bf316aaf42_2 phases=1 bus1=node_405225447.2.4 conn=wye kv=0.1270 pf=1 pmpp=0.40 kva=0.40 irradiance=1 temperature=25 %cutin=20 %cutout=20 effcurve=MyEff P-TCurve=MyPvsT Daily=IRRAD_DIA TDaily=TEMP_DIA
New PVSystem.GD_043058af03299eafbb2262133d6f574961febe227e4d98703b6e01bf316aaf42_3 phases=1 bus1=node_405225447.3.4 conn=wye kv=0.1270 pf=1 pmpp=0.40 kva=0.40 irradiance=1 temperature=25 %cutin=20 %cutout=20 effcurve=MyEff P-TCurve=MyPvsT Daily=IRRAD_DIA TDaily=TEMP_DIA
New PVSystem.GD_75cbcceeb9926dea769f908c5fffe2d40365f56d23317b873b046af91f61b490_1 phases=1 bus1=node_405225447.1.4 conn=wye kv=0.1270 pf=1 pmpp=1.31 kva=1.31 irradiance=1 temperature=25 %cutin=20 %cutout=20 effcurve=MyEff P-TCurve=MyPvsT Daily=IRRAD_DIA TDaily=TEMP_DIA
New PVSystem.GD_75cbcceeb9926dea769f908c5fffe2d40365f56d23317b873b046af91f61b490_2 phases=1 bus1=node_405225447.2.4 conn=wye kv=0.1270 pf=1 pmpp=1.31 kva=1.31 irradiance=1 temperature=25 %cutin=20 %cutout=20 effcurve=MyEff P-TCurve=MyPvsT Daily=IRRAD_DIA TDaily=TEMP_DIA
New PVSystem.GD_75cbcceeb9926dea769f908c5fffe2d40365f56d23317b873b046af91f61b490_3 phases=1 bus1=node_405225447.3.4 conn=wye kv=0.1270 pf=1 pmpp=1.31 kva=1.31 irradiance=1 temperature=25 %cutin=20 %cutout=20 effcurve=MyEff P-TCurve=MyPvsT Daily=IRRAD_DIA TDaily=TEMP_DIA
New PVSystem.GD_b8c2f9defc8709d09fb649c0fa280ae3de0b94f16d58e690f0fc44ba53c9abee_1 phases=1 bus1=node_414099191.1.4 conn=wye kv=0.1270 pf=1 pmpp=0.72 kva=0.72 irradiance=1 temperature=25 %cutin=20 %cutout=20 effcurve=MyEff P-TCurve=MyPvsT Daily=IRRAD_DIA TDaily=TEMP_DIA
New PVSystem.GD_b8c2f9defc8709d09fb649c0fa280ae3de0b94f16d58e690f0fc44ba53c9abee_2 phases=1 bus1=node_414099191.2.4 conn=wye kv=0.1270 pf=1 pmpp=0.72 kva=0.72 irradiance=1 temperature=25 %cutin=20 %cutout=20 effcurve=MyEff P-TCurve=MyPvsT Daily=IRRAD_DIA TDaily=TEMP_DIA
New PVSystem.GD_b8c2f9defc8709d09fb649c0fa280ae3de0b94f16d58e690f0fc44ba53c9abee_3 phases=1 bus1=node_414099191.3.4 conn=wye kv=0.1270 pf=1 pmpp=0.72 kva=0.72 irradiance=1 temperature=25 %cutin=20 %cutout=20 effcurve=MyEff P-TCurve=MyPvsT Daily=IRRAD_DIA TDaily=TEMP_DIA
New PVSystem.GD_54f081c6520bf1938575af70ce74ebb8f86b0eb95c1e67ca6f2b638099f1c9ed_1 phases=1 bus1=node_414099191.1.4 conn=wye kv=0.1270 pf=1 pmpp=1.34 kva=1.34 irradiance=1 temperature=25 %cutin=20 %cutout=20 effcurve=MyEff P-TCurve=MyPvsT Daily=IRRAD_DIA TDaily=TEMP_DIA
New PVSystem.GD_54f081c6520bf1938575af70ce74ebb8f86b0eb95c1e67ca6f2b638099f1c9ed_2 phases=1 bus1=node_414099191.2.4 conn=wye kv=0.1270 pf=1 pmpp=1.34 kva=1.34 irradiance=1 temperature=25 %cutin=20 %cutout=20 effcurve=MyEff P-TCurve=MyPvsT Daily=IRRAD_DIA TDaily=TEMP_DIA
New PVSystem.GD_54f081c6520bf1938575af70ce74ebb8f86b0eb95c1e67ca6f2b638099f1c9ed_3 phases=1 bus1=node_414099191.3.4 conn=wye kv=0.1270 pf=1 pmpp=1.34 kva=1.34 irradiance=1 temperature=25 %cutin=20 %cutout=20 effcurve=MyEff P-TCurve=MyPvsT Daily=IRRAD_DIA TDaily=TEMP_DIA
New PVSystem.GD_6740f019d7dc5d7543ce34f88e7c7e3639af435333255fb606c68cfa94b86047_1 phases=1 bus1=node_414099191.1.4 conn=wye kv=0.1270 pf=1 pmpp=1.56 kva=1.56 irradiance=1 temperature=25 %cutin=20 %cutout=20 effcurve=MyEff P-TCurve=MyPvsT Daily=IRRAD_DIA TDaily=TEMP_DIA
New PVSystem.GD_6740f019d7dc5d7543ce34f88e7c7e3639af435333255fb606c68cfa94b86047_2 phases=1 bus1=node_414099191.2.4 conn=wye kv=0.1270 pf=1 pmpp=1.56 kva=1.56 irradiance=1 temperature=25 %cutin=20 %cutout=20 effcurve=MyEff P-TCurve=MyPvsT Daily=IRRAD_DIA TDaily=TEMP_DIA
New PVSystem.GD_6740f019d7dc5d7543ce34f88e7c7e3639af435333255fb606c68cfa94b86047_3 phases=1 bus1=node_414099191.3.4 conn=wye kv=0.1270 pf=1 pmpp=1.56 kva=1.56 irradiance=1 temperature=25 %cutin=20 %cutout=20 effcurve=MyEff P-TCurve=MyPvsT Daily=IRRAD_DIA TDaily=TEMP_DIA
New PVSystem.GD_18b8915df827f117bd3dd23c79ed2b8237183b5a4573d98b3fd7572986b1aafc_1 phases=1 bus1=node_405225642.1.4 conn=wye kv=0.1270 pf=1 pmpp=0.51 kva=0.51 irradiance=1 temperature=25 %cutin=20 %cutout=20 effcurve=MyEff P-TCurve=MyPvsT Daily=IRRAD_DIA TDaily=TEMP_DIA
New PVSystem.GD_18b8915df827f117bd3dd23c79ed2b8237183b5a4573d98b3fd7572986b1aafc_2 phases=1 bus1=node_405225642.2.4 conn=wye kv=0.1270 pf=1 pmpp=0.51 kva=0.51 irradiance=1 temperature=25 %cutin=20 %cutout=20 effcurve=MyEff P-TCurve=MyPvsT Daily=IRRAD_DIA TDaily=TEMP_DIA
New PVSystem.GD_18b8915df827f117bd3dd23c79ed2b8237183b5a4573d98b3fd7572986b1aafc_3 phases=1 bus1=node_405225642.3.4 conn=wye kv=0.1270 pf=1 pmpp=0.51 kva=0.51 irradiance=1 temperature=25 %cutin=20 %cutout=20 effcurve=MyEff P-TCurve=MyPvsT Daily=IRRAD_DIA TDaily=TEMP_DIA
New PVSystem.GD_340c61f59dade28c38bd7c3895cc4faad989a64942e3b48c3e2381de07a90f23_1 phases=1 bus1=node_405225642.1.4 conn=wye kv=0.1270 pf=1 pmpp=0.65 kva=0.65 irradiance=1 temperature=25 %cutin=20 %cutout=20 effcurve=MyEff P-TCurve=MyPvsT Daily=IRRAD_DIA TDaily=TEMP_DIA
New PVSystem.GD_340c61f59dade28c38bd7c3895cc4faad989a64942e3b48c3e2381de07a90f23_2 phases=1 bus1=node_405225642.2.4 conn=wye kv=0.1270 pf=1 pmpp=0.65 kva=0.65 irradiance=1 temperature=25 %cutin=20 %cutout=20 effcurve=MyEff P-TCurve=MyPvsT Daily=IRRAD_DIA TDaily=TEMP_DIA
New PVSystem.GD_340c61f59dade28c38bd7c3895cc4faad989a64942e3b48c3e2381de07a90f23_3 phases=1 bus1=node_405225642.3.4 conn=wye kv=0.1270 pf=1 pmpp=0.65 kva=0.65 irradiance=1 temperature=25 %cutin=20 %cutout=20 effcurve=MyEff P-TCurve=MyPvsT Daily=IRRAD_DIA TDaily=TEMP_DIA
New PVSystem.GD_12fda3b6c9850de7636df635ef6e928d7b38f166fd20fa8295e58e1a4ca14aea_1 phases=1 bus1=node_414123160.1.4 conn=wye kv=0.1270 pf=1 pmpp=0.91 kva=0.91 irradiance=1 temperature=25 %cutin=20 %cutout=20 effcurve=MyEff P-TCurve=MyPvsT Daily=IRRAD_DIA TDaily=TEMP_DIA
New PVSystem.GD_12fda3b6c9850de7636df635ef6e928d7b38f166fd20fa8295e58e1a4ca14aea_2 phases=1 bus1=node_414123160.2.4 conn=wye kv=0.1270 pf=1 pmpp=0.91 kva=0.91 irradiance=1 temperature=25 %cutin=20 %cutout=20 effcurve=MyEff P-TCurve=MyPvsT Daily=IRRAD_DIA TDaily=TEMP_DIA
New PVSystem.GD_12fda3b6c9850de7636df635ef6e928d7b38f166fd20fa8295e58e1a4ca14aea_3 phases=1 bus1=node_414123160.3.4 conn=wye kv=0.1270 pf=1 pmpp=0.91 kva=0.91 irradiance=1 temperature=25 %cutin=20 %cutout=20 effcurve=MyEff P-TCurve=MyPvsT Daily=IRRAD_DIA TDaily=TEMP_DIA
New PVSystem.GD_5ee67c102a70a27dae48fe4d1c65a91aace1deb0e3c7cca34ab4a4a5c5e67683_1 phases=1 bus1=node_414123160.1.4 conn=wye kv=0.1270 pf=1 pmpp=2.11 kva=2.11 irradiance=1 temperature=25 %cutin=20 %cutout=20 effcurve=MyEff P-TCurve=MyPvsT Daily=IRRAD_DIA TDaily=TEMP_DIA
New PVSystem.GD_5ee67c102a70a27dae48fe4d1c65a91aace1deb0e3c7cca34ab4a4a5c5e67683_2 phases=1 bus1=node_414123160.2.4 conn=wye kv=0.1270 pf=1 pmpp=2.11 kva=2.11 irradiance=1 temperature=25 %cutin=20 %cutout=20 effcurve=MyEff P-TCurve=MyPvsT Daily=IRRAD_DIA TDaily=TEMP_DIA
New PVSystem.GD_5ee67c102a70a27dae48fe4d1c65a91aace1deb0e3c7cca34ab4a4a5c5e67683_3 phases=1 bus1=node_414123160.3.4 conn=wye kv=0.1270 pf=1 pmpp=2.11 kva=2.11 irradiance=1 temperature=25 %cutin=20 %cutout=20 effcurve=MyEff P-TCurve=MyPvsT Daily=IRRAD_DIA TDaily=TEMP_DIA
New PVSystem.GD_5b120efd51057c5433e1842ddc6cd302a2d7b746ea3d77fa0156b3d179e36cca_1 phases=1 bus1=node_403579025.1.4 conn=wye kv=0.1270 pf=1 pmpp=1.38 kva=1.38 irradiance=1 temperature=25 %cutin=20 %cutout=20 effcurve=MyEff P-TCurve=MyPvsT Daily=IRRAD_DIA TDaily=TEMP_DIA
New PVSystem.GD_5b120efd51057c5433e1842ddc6cd302a2d7b746ea3d77fa0156b3d179e36cca_2 phases=1 bus1=node_403579025.2.4 conn=wye kv=0.1270 pf=1 pmpp=1.38 kva=1.38 irradiance=1 temperature=25 %cutin=20 %cutout=20 effcurve=MyEff P-TCurve=MyPvsT Daily=IRRAD_DIA TDaily=TEMP_DIA
New PVSystem.GD_5b120efd51057c5433e1842ddc6cd302a2d7b746ea3d77fa0156b3d179e36cca_3 phases=1 bus1=node_403579025.3.4 conn=wye kv=0.1270 pf=1 pmpp=1.38 kva=1.38 irradiance=1 temperature=25 %cutin=20 %cutout=20 effcurve=MyEff P-TCurve=MyPvsT Daily=IRRAD_DIA TDaily=TEMP_DIA
New PVSystem.GD_5c6504194af8380582a3b9372d66700f765bf536e83f00e38766c73e2bf9bab3_1 phases=1 bus1=node_403578851.1.4 conn=wye kv=0.1270 pf=1 pmpp=1.34 kva=1.34 irradiance=1 temperature=25 %cutin=20 %cutout=20 effcurve=MyEff P-TCurve=MyPvsT Daily=IRRAD_DIA TDaily=TEMP_DIA
New PVSystem.GD_5c6504194af8380582a3b9372d66700f765bf536e83f00e38766c73e2bf9bab3_2 phases=1 bus1=node_403578851.2.4 conn=wye kv=0.1270 pf=1 pmpp=1.34 kva=1.34 irradiance=1 temperature=25 %cutin=20 %cutout=20 effcurve=MyEff P-TCurve=MyPvsT Daily=IRRAD_DIA TDaily=TEMP_DIA
New PVSystem.GD_5c6504194af8380582a3b9372d66700f765bf536e83f00e38766c73e2bf9bab3_3 phases=1 bus1=node_403578851.3.4 conn=wye kv=0.1270 pf=1 pmpp=1.34 kva=1.34 irradiance=1 temperature=25 %cutin=20 %cutout=20 effcurve=MyEff P-TCurve=MyPvsT Daily=IRRAD_DIA TDaily=TEMP_DIA
New PVSystem.GD_0ec0c11b875819b11df8682a0631b573cd2fb622680c5cb8b695bd356becf551_1 phases=1 bus1=node_403578851.1.4 conn=wye kv=0.1270 pf=1 pmpp=0.84 kva=0.84 irradiance=1 temperature=25 %cutin=20 %cutout=20 effcurve=MyEff P-TCurve=MyPvsT Daily=IRRAD_DIA TDaily=TEMP_DIA
New PVSystem.GD_0ec0c11b875819b11df8682a0631b573cd2fb622680c5cb8b695bd356becf551_2 phases=1 bus1=node_403578851.2.4 conn=wye kv=0.1270 pf=1 pmpp=0.84 kva=0.84 irradiance=1 temperature=25 %cutin=20 %cutout=20 effcurve=MyEff P-TCurve=MyPvsT Daily=IRRAD_DIA TDaily=TEMP_DIA
New PVSystem.GD_0ec0c11b875819b11df8682a0631b573cd2fb622680c5cb8b695bd356becf551_3 phases=1 bus1=node_403578851.3.4 conn=wye kv=0.1270 pf=1 pmpp=0.84 kva=0.84 irradiance=1 temperature=25 %cutin=20 %cutout=20 effcurve=MyEff P-TCurve=MyPvsT Daily=IRRAD_DIA TDaily=TEMP_DIA
New PVSystem.GD_e614008af48f96ba4c21bab6dc4dc103bbe370ff2a6bc1206442101d17318996_1 phases=1 bus1=node_403578851.1.4 conn=wye kv=0.1270 pf=1 pmpp=0.67 kva=0.67 irradiance=1 temperature=25 %cutin=20 %cutout=20 effcurve=MyEff P-TCurve=MyPvsT Daily=IRRAD_DIA TDaily=TEMP_DIA
New PVSystem.GD_e614008af48f96ba4c21bab6dc4dc103bbe370ff2a6bc1206442101d17318996_2 phases=1 bus1=node_403578851.2.4 conn=wye kv=0.1270 pf=1 pmpp=0.67 kva=0.67 irradiance=1 temperature=25 %cutin=20 %cutout=20 effcurve=MyEff P-TCurve=MyPvsT Daily=IRRAD_DIA TDaily=TEMP_DIA
New PVSystem.GD_e614008af48f96ba4c21bab6dc4dc103bbe370ff2a6bc1206442101d17318996_3 phases=1 bus1=node_403578851.3.4 conn=wye kv=0.1270 pf=1 pmpp=0.67 kva=0.67 irradiance=1 temperature=25 %cutin=20 %cutout=20 effcurve=MyEff P-TCurve=MyPvsT Daily=IRRAD_DIA TDaily=TEMP_DIA
New PVSystem.GD_995c87bf20a0909c02a9ee81c80d9041db970391f6380138eab8c723cf019b29_1 phases=1 bus1=node_403578851.1.4 conn=wye kv=0.1270 pf=1 pmpp=0.28 kva=0.28 irradiance=1 temperature=25 %cutin=20 %cutout=20 effcurve=MyEff P-TCurve=MyPvsT Daily=IRRAD_DIA TDaily=TEMP_DIA
New PVSystem.GD_995c87bf20a0909c02a9ee81c80d9041db970391f6380138eab8c723cf019b29_2 phases=1 bus1=node_403578851.2.4 conn=wye kv=0.1270 pf=1 pmpp=0.28 kva=0.28 irradiance=1 temperature=25 %cutin=20 %cutout=20 effcurve=MyEff P-TCurve=MyPvsT Daily=IRRAD_DIA TDaily=TEMP_DIA
New PVSystem.GD_995c87bf20a0909c02a9ee81c80d9041db970391f6380138eab8c723cf019b29_3 phases=1 bus1=node_403578851.3.4 conn=wye kv=0.1270 pf=1 pmpp=0.28 kva=0.28 irradiance=1 temperature=25 %cutin=20 %cutout=20 effcurve=MyEff P-TCurve=MyPvsT Daily=IRRAD_DIA TDaily=TEMP_DIA
New PVSystem.GD_490c7199f636aa1b5395ee2ca501b2c4ae1f012104617edae879d89172d0d6e5_1 phases=1 bus1=node_403579346.1.4 conn=wye kv=0.1270 pf=1 pmpp=1.32 kva=1.32 irradiance=1 temperature=25 %cutin=20 %cutout=20 effcurve=MyEff P-TCurve=MyPvsT Daily=IRRAD_DIA TDaily=TEMP_DIA
New PVSystem.GD_490c7199f636aa1b5395ee2ca501b2c4ae1f012104617edae879d89172d0d6e5_2 phases=1 bus1=node_403579346.2.4 conn=wye kv=0.1270 pf=1 pmpp=1.32 kva=1.32 irradiance=1 temperature=25 %cutin=20 %cutout=20 effcurve=MyEff P-TCurve=MyPvsT Daily=IRRAD_DIA TDaily=TEMP_DIA
New PVSystem.GD_490c7199f636aa1b5395ee2ca501b2c4ae1f012104617edae879d89172d0d6e5_3 phases=1 bus1=node_403579346.3.4 conn=wye kv=0.1270 pf=1 pmpp=1.32 kva=1.32 irradiance=1 temperature=25 %cutin=20 %cutout=20 effcurve=MyEff P-TCurve=MyPvsT Daily=IRRAD_DIA TDaily=TEMP_DIA
New PVSystem.GD_f19904d58e039042de743fe9799aa4b51ae7d29bd2729add8510ab38919d3d8c_1 phases=1 bus1=node_403579346.1.4 conn=wye kv=0.1270 pf=1 pmpp=2.00 kva=2.00 irradiance=1 temperature=25 %cutin=20 %cutout=20 effcurve=MyEff P-TCurve=MyPvsT Daily=IRRAD_DIA TDaily=TEMP_DIA
New PVSystem.GD_f19904d58e039042de743fe9799aa4b51ae7d29bd2729add8510ab38919d3d8c_2 phases=1 bus1=node_403579346.2.4 conn=wye kv=0.1270 pf=1 pmpp=2.00 kva=2.00 irradiance=1 temperature=25 %cutin=20 %cutout=20 effcurve=MyEff P-TCurve=MyPvsT Daily=IRRAD_DIA TDaily=TEMP_DIA
New PVSystem.GD_f19904d58e039042de743fe9799aa4b51ae7d29bd2729add8510ab38919d3d8c_3 phases=1 bus1=node_403579346.3.4 conn=wye kv=0.1270 pf=1 pmpp=2.00 kva=2.00 irradiance=1 temperature=25 %cutin=20 %cutout=20 effcurve=MyEff P-TCurve=MyPvsT Daily=IRRAD_DIA TDaily=TEMP_DIA
New PVSystem.GD_b11354baaf46c8f08b59bf5caecee8cf55582dfbaca6bc28bcf1aa0a8840cc86_1 phases=1 bus1=node_403579346.1.4 conn=wye kv=0.1270 pf=1 pmpp=2.14 kva=2.14 irradiance=1 temperature=25 %cutin=20 %cutout=20 effcurve=MyEff P-TCurve=MyPvsT Daily=IRRAD_DIA TDaily=TEMP_DIA
New PVSystem.GD_b11354baaf46c8f08b59bf5caecee8cf55582dfbaca6bc28bcf1aa0a8840cc86_2 phases=1 bus1=node_403579346.2.4 conn=wye kv=0.1270 pf=1 pmpp=2.14 kva=2.14 irradiance=1 temperature=25 %cutin=20 %cutout=20 effcurve=MyEff P-TCurve=MyPvsT Daily=IRRAD_DIA TDaily=TEMP_DIA
New PVSystem.GD_b11354baaf46c8f08b59bf5caecee8cf55582dfbaca6bc28bcf1aa0a8840cc86_3 phases=1 bus1=node_403579346.3.4 conn=wye kv=0.1270 pf=1 pmpp=2.14 kva=2.14 irradiance=1 temperature=25 %cutin=20 %cutout=20 effcurve=MyEff P-TCurve=MyPvsT Daily=IRRAD_DIA TDaily=TEMP_DIA
New PVSystem.GD_060b33384214095474cc798fa0e5d7f1d63fdf133f81864361859a65c1f655dc_1 phases=1 bus1=node_403579328.1.4 conn=wye kv=0.1270 pf=1 pmpp=1.60 kva=1.60 irradiance=1 temperature=25 %cutin=20 %cutout=20 effcurve=MyEff P-TCurve=MyPvsT Daily=IRRAD_DIA TDaily=TEMP_DIA
New PVSystem.GD_060b33384214095474cc798fa0e5d7f1d63fdf133f81864361859a65c1f655dc_2 phases=1 bus1=node_403579328.2.4 conn=wye kv=0.1270 pf=1 pmpp=1.60 kva=1.60 irradiance=1 temperature=25 %cutin=20 %cutout=20 effcurve=MyEff P-TCurve=MyPvsT Daily=IRRAD_DIA TDaily=TEMP_DIA
New PVSystem.GD_060b33384214095474cc798fa0e5d7f1d63fdf133f81864361859a65c1f655dc_3 phases=1 bus1=node_403579328.3.4 conn=wye kv=0.1270 pf=1 pmpp=1.60 kva=1.60 irradiance=1 temperature=25 %cutin=20 %cutout=20 effcurve=MyEff P-TCurve=MyPvsT Daily=IRRAD_DIA TDaily=TEMP_DIA
New PVSystem.GD_b26bc1382aff1a6a60a9fc0046c056f86fef5f75db280c6a12502fa6d62f488e_1 phases=1 bus1=node_403579328.1.4 conn=wye kv=0.1270 pf=1 pmpp=2.46 kva=2.46 irradiance=1 temperature=25 %cutin=20 %cutout=20 effcurve=MyEff P-TCurve=MyPvsT Daily=IRRAD_DIA TDaily=TEMP_DIA
New PVSystem.GD_b26bc1382aff1a6a60a9fc0046c056f86fef5f75db280c6a12502fa6d62f488e_2 phases=1 bus1=node_403579328.2.4 conn=wye kv=0.1270 pf=1 pmpp=2.46 kva=2.46 irradiance=1 temperature=25 %cutin=20 %cutout=20 effcurve=MyEff P-TCurve=MyPvsT Daily=IRRAD_DIA TDaily=TEMP_DIA
New PVSystem.GD_b26bc1382aff1a6a60a9fc0046c056f86fef5f75db280c6a12502fa6d62f488e_3 phases=1 bus1=node_403579328.3.4 conn=wye kv=0.1270 pf=1 pmpp=2.46 kva=2.46 irradiance=1 temperature=25 %cutin=20 %cutout=20 effcurve=MyEff P-TCurve=MyPvsT Daily=IRRAD_DIA TDaily=TEMP_DIA
New PVSystem.GD_74f6f637829818b1490984e24b8251d5bd7f35035ef8d3b1cacb761930e48f44_1 phases=1 bus1=node_403579328.1.4 conn=wye kv=0.1270 pf=1 pmpp=2.59 kva=2.59 irradiance=1 temperature=25 %cutin=20 %cutout=20 effcurve=MyEff P-TCurve=MyPvsT Daily=IRRAD_DIA TDaily=TEMP_DIA
New PVSystem.GD_74f6f637829818b1490984e24b8251d5bd7f35035ef8d3b1cacb761930e48f44_2 phases=1 bus1=node_403579328.2.4 conn=wye kv=0.1270 pf=1 pmpp=2.59 kva=2.59 irradiance=1 temperature=25 %cutin=20 %cutout=20 effcurve=MyEff P-TCurve=MyPvsT Daily=IRRAD_DIA TDaily=TEMP_DIA
New PVSystem.GD_74f6f637829818b1490984e24b8251d5bd7f35035ef8d3b1cacb761930e48f44_3 phases=1 bus1=node_403579328.3.4 conn=wye kv=0.1270 pf=1 pmpp=2.59 kva=2.59 irradiance=1 temperature=25 %cutin=20 %cutout=20 effcurve=MyEff P-TCurve=MyPvsT Daily=IRRAD_DIA TDaily=TEMP_DIA
New PVSystem.GD_66e99b6abfa7c04a0692ce38e75aa6c5242b01b7523831bb8c073ed3359ce5a4_1 phases=1 bus1=node_403579328.1.4 conn=wye kv=0.1270 pf=1 pmpp=1.75 kva=1.75 irradiance=1 temperature=25 %cutin=20 %cutout=20 effcurve=MyEff P-TCurve=MyPvsT Daily=IRRAD_DIA TDaily=TEMP_DIA
New PVSystem.GD_66e99b6abfa7c04a0692ce38e75aa6c5242b01b7523831bb8c073ed3359ce5a4_2 phases=1 bus1=node_403579328.2.4 conn=wye kv=0.1270 pf=1 pmpp=1.75 kva=1.75 irradiance=1 temperature=25 %cutin=20 %cutout=20 effcurve=MyEff P-TCurve=MyPvsT Daily=IRRAD_DIA TDaily=TEMP_DIA
New PVSystem.GD_66e99b6abfa7c04a0692ce38e75aa6c5242b01b7523831bb8c073ed3359ce5a4_3 phases=1 bus1=node_403579328.3.4 conn=wye kv=0.1270 pf=1 pmpp=1.75 kva=1.75 irradiance=1 temperature=25 %cutin=20 %cutout=20 effcurve=MyEff P-TCurve=MyPvsT Daily=IRRAD_DIA TDaily=TEMP_DIA
New PVSystem.GD_ac2c99581bcbf53269c4ce7242f97ebeaca89e14818d0a13e1feb76e311d72aa_1 phases=1 bus1=node_403579328.1.4 conn=wye kv=0.1270 pf=1 pmpp=0.64 kva=0.64 irradiance=1 temperature=25 %cutin=20 %cutout=20 effcurve=MyEff P-TCurve=MyPvsT Daily=IRRAD_DIA TDaily=TEMP_DIA
New PVSystem.GD_ac2c99581bcbf53269c4ce7242f97ebeaca89e14818d0a13e1feb76e311d72aa_2 phases=1 bus1=node_403579328.2.4 conn=wye kv=0.1270 pf=1 pmpp=0.64 kva=0.64 irradiance=1 temperature=25 %cutin=20 %cutout=20 effcurve=MyEff P-TCurve=MyPvsT Daily=IRRAD_DIA TDaily=TEMP_DIA
New PVSystem.GD_ac2c99581bcbf53269c4ce7242f97ebeaca89e14818d0a13e1feb76e311d72aa_3 phases=1 bus1=node_403579328.3.4 conn=wye kv=0.1270 pf=1 pmpp=0.64 kva=0.64 irradiance=1 temperature=25 %cutin=20 %cutout=20 effcurve=MyEff P-TCurve=MyPvsT Daily=IRRAD_DIA TDaily=TEMP_DIA
New PVSystem.GD_b00f043f87f64b9b98497dba256ab4bde93ecfe4751ab8f6eb80430f9457b831_1 phases=1 bus1=node_403579328.1.4 conn=wye kv=0.1270 pf=1 pmpp=0.32 kva=0.32 irradiance=1 temperature=25 %cutin=20 %cutout=20 effcurve=MyEff P-TCurve=MyPvsT Daily=IRRAD_DIA TDaily=TEMP_DIA
New PVSystem.GD_b00f043f87f64b9b98497dba256ab4bde93ecfe4751ab8f6eb80430f9457b831_2 phases=1 bus1=node_403579328.2.4 conn=wye kv=0.1270 pf=1 pmpp=0.32 kva=0.32 irradiance=1 temperature=25 %cutin=20 %cutout=20 effcurve=MyEff P-TCurve=MyPvsT Daily=IRRAD_DIA TDaily=TEMP_DIA
New PVSystem.GD_b00f043f87f64b9b98497dba256ab4bde93ecfe4751ab8f6eb80430f9457b831_3 phases=1 bus1=node_403579328.3.4 conn=wye kv=0.1270 pf=1 pmpp=0.32 kva=0.32 irradiance=1 temperature=25 %cutin=20 %cutout=20 effcurve=MyEff P-TCurve=MyPvsT Daily=IRRAD_DIA TDaily=TEMP_DIA
New PVSystem.GD_02c3374ca75a585fdca6dcb62c554a9b49310992494df942df21d251196a880c_1 phases=1 bus1=node_403579328.1.4 conn=wye kv=0.1270 pf=1 pmpp=1.44 kva=1.44 irradiance=1 temperature=25 %cutin=20 %cutout=20 effcurve=MyEff P-TCurve=MyPvsT Daily=IRRAD_DIA TDaily=TEMP_DIA
New PVSystem.GD_02c3374ca75a585fdca6dcb62c554a9b49310992494df942df21d251196a880c_2 phases=1 bus1=node_403579328.2.4 conn=wye kv=0.1270 pf=1 pmpp=1.44 kva=1.44 irradiance=1 temperature=25 %cutin=20 %cutout=20 effcurve=MyEff P-TCurve=MyPvsT Daily=IRRAD_DIA TDaily=TEMP_DIA
New PVSystem.GD_02c3374ca75a585fdca6dcb62c554a9b49310992494df942df21d251196a880c_3 phases=1 bus1=node_403579328.3.4 conn=wye kv=0.1270 pf=1 pmpp=1.44 kva=1.44 irradiance=1 temperature=25 %cutin=20 %cutout=20 effcurve=MyEff P-TCurve=MyPvsT Daily=IRRAD_DIA TDaily=TEMP_DIA
New PVSystem.GD_057ee39af625b5f7c0bb5ac88cc300ce07a862a606b93fb8a423c765add4a995_1 phases=1 bus1=node_403579328.1.4 conn=wye kv=0.1270 pf=1 pmpp=1.86 kva=1.86 irradiance=1 temperature=25 %cutin=20 %cutout=20 effcurve=MyEff P-TCurve=MyPvsT Daily=IRRAD_DIA TDaily=TEMP_DIA
New PVSystem.GD_057ee39af625b5f7c0bb5ac88cc300ce07a862a606b93fb8a423c765add4a995_2 phases=1 bus1=node_403579328.2.4 conn=wye kv=0.1270 pf=1 pmpp=1.86 kva=1.86 irradiance=1 temperature=25 %cutin=20 %cutout=20 effcurve=MyEff P-TCurve=MyPvsT Daily=IRRAD_DIA TDaily=TEMP_DIA
New PVSystem.GD_057ee39af625b5f7c0bb5ac88cc300ce07a862a606b93fb8a423c765add4a995_3 phases=1 bus1=node_403579328.3.4 conn=wye kv=0.1270 pf=1 pmpp=1.86 kva=1.86 irradiance=1 temperature=25 %cutin=20 %cutout=20 effcurve=MyEff P-TCurve=MyPvsT Daily=IRRAD_DIA TDaily=TEMP_DIA
New PVSystem.GD_65dd2da29f43bd827c74ed1c102cb657d4c124fc5dcbc040c68d65952c4d92a9_1 phases=1 bus1=node_414123136.1.4 conn=wye kv=0.1270 pf=1 pmpp=0.23 kva=0.23 irradiance=1 temperature=25 %cutin=20 %cutout=20 effcurve=MyEff P-TCurve=MyPvsT Daily=IRRAD_DIA TDaily=TEMP_DIA
New PVSystem.GD_65dd2da29f43bd827c74ed1c102cb657d4c124fc5dcbc040c68d65952c4d92a9_2 phases=1 bus1=node_414123136.2.4 conn=wye kv=0.1270 pf=1 pmpp=0.23 kva=0.23 irradiance=1 temperature=25 %cutin=20 %cutout=20 effcurve=MyEff P-TCurve=MyPvsT Daily=IRRAD_DIA TDaily=TEMP_DIA
New PVSystem.GD_65dd2da29f43bd827c74ed1c102cb657d4c124fc5dcbc040c68d65952c4d92a9_3 phases=1 bus1=node_414123136.3.4 conn=wye kv=0.1270 pf=1 pmpp=0.23 kva=0.23 irradiance=1 temperature=25 %cutin=20 %cutout=20 effcurve=MyEff P-TCurve=MyPvsT Daily=IRRAD_DIA TDaily=TEMP_DIA
New PVSystem.GD_fcf8980eee19a721f8cd3fab63fd1c192f427674353a89f9063edf81146be0c4_1 phases=1 bus1=node_414123136.1.4 conn=wye kv=0.1270 pf=1 pmpp=0.82 kva=0.82 irradiance=1 temperature=25 %cutin=20 %cutout=20 effcurve=MyEff P-TCurve=MyPvsT Daily=IRRAD_DIA TDaily=TEMP_DIA
New PVSystem.GD_fcf8980eee19a721f8cd3fab63fd1c192f427674353a89f9063edf81146be0c4_2 phases=1 bus1=node_414123136.2.4 conn=wye kv=0.1270 pf=1 pmpp=0.82 kva=0.82 irradiance=1 temperature=25 %cutin=20 %cutout=20 effcurve=MyEff P-TCurve=MyPvsT Daily=IRRAD_DIA TDaily=TEMP_DIA
New PVSystem.GD_fcf8980eee19a721f8cd3fab63fd1c192f427674353a89f9063edf81146be0c4_3 phases=1 bus1=node_414123136.3.4 conn=wye kv=0.1270 pf=1 pmpp=0.82 kva=0.82 irradiance=1 temperature=25 %cutin=20 %cutout=20 effcurve=MyEff P-TCurve=MyPvsT Daily=IRRAD_DIA TDaily=TEMP_DIA
New PVSystem.GD_796d6bdab373ef96dd9d5a6458d6df15d0dca7e39c18ec32a7107e0847b49594_1 phases=1 bus1=node_414123136.1.4 conn=wye kv=0.1270 pf=1 pmpp=3.39 kva=3.39 irradiance=1 temperature=25 %cutin=20 %cutout=20 effcurve=MyEff P-TCurve=MyPvsT Daily=IRRAD_DIA TDaily=TEMP_DIA
New PVSystem.GD_796d6bdab373ef96dd9d5a6458d6df15d0dca7e39c18ec32a7107e0847b49594_2 phases=1 bus1=node_414123136.2.4 conn=wye kv=0.1270 pf=1 pmpp=3.39 kva=3.39 irradiance=1 temperature=25 %cutin=20 %cutout=20 effcurve=MyEff P-TCurve=MyPvsT Daily=IRRAD_DIA TDaily=TEMP_DIA
New PVSystem.GD_796d6bdab373ef96dd9d5a6458d6df15d0dca7e39c18ec32a7107e0847b49594_3 phases=1 bus1=node_414123136.3.4 conn=wye kv=0.1270 pf=1 pmpp=3.39 kva=3.39 irradiance=1 temperature=25 %cutin=20 %cutout=20 effcurve=MyEff P-TCurve=MyPvsT Daily=IRRAD_DIA TDaily=TEMP_DIA
New PVSystem.GD_5b80c622276ac285250a023c3e638f62d9d9b336830916b6430a1df86967c309_1 phases=1 bus1=node_414099194.1.4 conn=wye kv=0.1270 pf=1 pmpp=1.27 kva=1.27 irradiance=1 temperature=25 %cutin=20 %cutout=20 effcurve=MyEff P-TCurve=MyPvsT Daily=IRRAD_DIA TDaily=TEMP_DIA
New PVSystem.GD_5b80c622276ac285250a023c3e638f62d9d9b336830916b6430a1df86967c309_2 phases=1 bus1=node_414099194.2.4 conn=wye kv=0.1270 pf=1 pmpp=1.27 kva=1.27 irradiance=1 temperature=25 %cutin=20 %cutout=20 effcurve=MyEff P-TCurve=MyPvsT Daily=IRRAD_DIA TDaily=TEMP_DIA
New PVSystem.GD_5b80c622276ac285250a023c3e638f62d9d9b336830916b6430a1df86967c309_3 phases=1 bus1=node_414099194.3.4 conn=wye kv=0.1270 pf=1 pmpp=1.27 kva=1.27 irradiance=1 temperature=25 %cutin=20 %cutout=20 effcurve=MyEff P-TCurve=MyPvsT Daily=IRRAD_DIA TDaily=TEMP_DIA
New PVSystem.GD_2976e0fbe2d530843f5ecbea3152513a4d660760eb733df3af5ccb7353112957_1 phases=1 bus1=node_414099194.1.4 conn=wye kv=0.1270 pf=1 pmpp=0.39 kva=0.39 irradiance=1 temperature=25 %cutin=20 %cutout=20 effcurve=MyEff P-TCurve=MyPvsT Daily=IRRAD_DIA TDaily=TEMP_DIA
New PVSystem.GD_2976e0fbe2d530843f5ecbea3152513a4d660760eb733df3af5ccb7353112957_2 phases=1 bus1=node_414099194.2.4 conn=wye kv=0.1270 pf=1 pmpp=0.39 kva=0.39 irradiance=1 temperature=25 %cutin=20 %cutout=20 effcurve=MyEff P-TCurve=MyPvsT Daily=IRRAD_DIA TDaily=TEMP_DIA
New PVSystem.GD_2976e0fbe2d530843f5ecbea3152513a4d660760eb733df3af5ccb7353112957_3 phases=1 bus1=node_414099194.3.4 conn=wye kv=0.1270 pf=1 pmpp=0.39 kva=0.39 irradiance=1 temperature=25 %cutin=20 %cutout=20 effcurve=MyEff P-TCurve=MyPvsT Daily=IRRAD_DIA TDaily=TEMP_DIA
New PVSystem.GD_e14895d5949fa1754a05fc277d9ef4cf4b3e522f634f1894cc6c01e3d485797b_1 phases=1 bus1=node_414099194.1.4 conn=wye kv=0.1270 pf=1 pmpp=1.50 kva=1.50 irradiance=1 temperature=25 %cutin=20 %cutout=20 effcurve=MyEff P-TCurve=MyPvsT Daily=IRRAD_DIA TDaily=TEMP_DIA
New PVSystem.GD_e14895d5949fa1754a05fc277d9ef4cf4b3e522f634f1894cc6c01e3d485797b_2 phases=1 bus1=node_414099194.2.4 conn=wye kv=0.1270 pf=1 pmpp=1.50 kva=1.50 irradiance=1 temperature=25 %cutin=20 %cutout=20 effcurve=MyEff P-TCurve=MyPvsT Daily=IRRAD_DIA TDaily=TEMP_DIA
New PVSystem.GD_e14895d5949fa1754a05fc277d9ef4cf4b3e522f634f1894cc6c01e3d485797b_3 phases=1 bus1=node_414099194.3.4 conn=wye kv=0.1270 pf=1 pmpp=1.50 kva=1.50 irradiance=1 temperature=25 %cutin=20 %cutout=20 effcurve=MyEff P-TCurve=MyPvsT Daily=IRRAD_DIA TDaily=TEMP_DIA
New PVSystem.GD_7b2c8c9ed2dcf7c4d121dfdba07e75c6ae9383adbb324394467372ca5716b788_1 phases=1 bus1=node_414122050.1.4 conn=wye kv=0.1270 pf=1 pmpp=0.20 kva=0.20 irradiance=1 temperature=25 %cutin=20 %cutout=20 effcurve=MyEff P-TCurve=MyPvsT Daily=IRRAD_DIA TDaily=TEMP_DIA
New PVSystem.GD_7b2c8c9ed2dcf7c4d121dfdba07e75c6ae9383adbb324394467372ca5716b788_2 phases=1 bus1=node_414122050.2.4 conn=wye kv=0.1270 pf=1 pmpp=0.20 kva=0.20 irradiance=1 temperature=25 %cutin=20 %cutout=20 effcurve=MyEff P-TCurve=MyPvsT Daily=IRRAD_DIA TDaily=TEMP_DIA
New PVSystem.GD_7b2c8c9ed2dcf7c4d121dfdba07e75c6ae9383adbb324394467372ca5716b788_3 phases=1 bus1=node_414122050.3.4 conn=wye kv=0.1270 pf=1 pmpp=0.20 kva=0.20 irradiance=1 temperature=25 %cutin=20 %cutout=20 effcurve=MyEff P-TCurve=MyPvsT Daily=IRRAD_DIA TDaily=TEMP_DIA
New PVSystem.GD_c98ed9f6da4f42e9ec6e239aaa082201c5810682c5942cd4b688085a3dabf149_1 phases=1 bus1=node_414122050.1.4 conn=wye kv=0.1270 pf=1 pmpp=0.44 kva=0.44 irradiance=1 temperature=25 %cutin=20 %cutout=20 effcurve=MyEff P-TCurve=MyPvsT Daily=IRRAD_DIA TDaily=TEMP_DIA
New PVSystem.GD_c98ed9f6da4f42e9ec6e239aaa082201c5810682c5942cd4b688085a3dabf149_2 phases=1 bus1=node_414122050.2.4 conn=wye kv=0.1270 pf=1 pmpp=0.44 kva=0.44 irradiance=1 temperature=25 %cutin=20 %cutout=20 effcurve=MyEff P-TCurve=MyPvsT Daily=IRRAD_DIA TDaily=TEMP_DIA
New PVSystem.GD_c98ed9f6da4f42e9ec6e239aaa082201c5810682c5942cd4b688085a3dabf149_3 phases=1 bus1=node_414122050.3.4 conn=wye kv=0.1270 pf=1 pmpp=0.44 kva=0.44 irradiance=1 temperature=25 %cutin=20 %cutout=20 effcurve=MyEff P-TCurve=MyPvsT Daily=IRRAD_DIA TDaily=TEMP_DIA
New PVSystem.GD_7d35360aaff72d8a5ed7ad398f44fb6d97ac1f15e49c7ed82fc13f6c76d354ac_1 phases=1 bus1=node_414122050.1.4 conn=wye kv=0.1270 pf=1 pmpp=0.78 kva=0.78 irradiance=1 temperature=25 %cutin=20 %cutout=20 effcurve=MyEff P-TCurve=MyPvsT Daily=IRRAD_DIA TDaily=TEMP_DIA
New PVSystem.GD_7d35360aaff72d8a5ed7ad398f44fb6d97ac1f15e49c7ed82fc13f6c76d354ac_2 phases=1 bus1=node_414122050.2.4 conn=wye kv=0.1270 pf=1 pmpp=0.78 kva=0.78 irradiance=1 temperature=25 %cutin=20 %cutout=20 effcurve=MyEff P-TCurve=MyPvsT Daily=IRRAD_DIA TDaily=TEMP_DIA
New PVSystem.GD_7d35360aaff72d8a5ed7ad398f44fb6d97ac1f15e49c7ed82fc13f6c76d354ac_3 phases=1 bus1=node_414122050.3.4 conn=wye kv=0.1270 pf=1 pmpp=0.78 kva=0.78 irradiance=1 temperature=25 %cutin=20 %cutout=20 effcurve=MyEff P-TCurve=MyPvsT Daily=IRRAD_DIA TDaily=TEMP_DIA
New PVSystem.GD_74d205393fde4d802eebc239d11b5ca003a2665eae098902a211ef8b231df156_1 phases=1 bus1=node_403649049.1.4 conn=wye kv=0.1270 pf=1 pmpp=0.32 kva=0.32 irradiance=1 temperature=25 %cutin=20 %cutout=20 effcurve=MyEff P-TCurve=MyPvsT Daily=IRRAD_DIA TDaily=TEMP_DIA
New PVSystem.GD_74d205393fde4d802eebc239d11b5ca003a2665eae098902a211ef8b231df156_2 phases=1 bus1=node_403649049.2.4 conn=wye kv=0.1270 pf=1 pmpp=0.32 kva=0.32 irradiance=1 temperature=25 %cutin=20 %cutout=20 effcurve=MyEff P-TCurve=MyPvsT Daily=IRRAD_DIA TDaily=TEMP_DIA
New PVSystem.GD_74d205393fde4d802eebc239d11b5ca003a2665eae098902a211ef8b231df156_3 phases=1 bus1=node_403649049.3.4 conn=wye kv=0.1270 pf=1 pmpp=0.32 kva=0.32 irradiance=1 temperature=25 %cutin=20 %cutout=20 effcurve=MyEff P-TCurve=MyPvsT Daily=IRRAD_DIA TDaily=TEMP_DIA
New PVSystem.GD_023738d8936b64a03b8454132e718d81dcaa8b52526124130ac4db4fe0b802d3_1 phases=1 bus1=node_403649049.1.4 conn=wye kv=0.1270 pf=1 pmpp=0.33 kva=0.33 irradiance=1 temperature=25 %cutin=20 %cutout=20 effcurve=MyEff P-TCurve=MyPvsT Daily=IRRAD_DIA TDaily=TEMP_DIA
New PVSystem.GD_023738d8936b64a03b8454132e718d81dcaa8b52526124130ac4db4fe0b802d3_2 phases=1 bus1=node_403649049.2.4 conn=wye kv=0.1270 pf=1 pmpp=0.33 kva=0.33 irradiance=1 temperature=25 %cutin=20 %cutout=20 effcurve=MyEff P-TCurve=MyPvsT Daily=IRRAD_DIA TDaily=TEMP_DIA
New PVSystem.GD_023738d8936b64a03b8454132e718d81dcaa8b52526124130ac4db4fe0b802d3_3 phases=1 bus1=node_403649049.3.4 conn=wye kv=0.1270 pf=1 pmpp=0.33 kva=0.33 irradiance=1 temperature=25 %cutin=20 %cutout=20 effcurve=MyEff P-TCurve=MyPvsT Daily=IRRAD_DIA TDaily=TEMP_DIA
New PVSystem.GD_187c465ff8e7905f2ff16451706f789e103b402568d05ff292f4ca48495e0e98_1 phases=1 bus1=node_403649049.1.4 conn=wye kv=0.1270 pf=1 pmpp=1.97 kva=1.97 irradiance=1 temperature=25 %cutin=20 %cutout=20 effcurve=MyEff P-TCurve=MyPvsT Daily=IRRAD_DIA TDaily=TEMP_DIA
New PVSystem.GD_187c465ff8e7905f2ff16451706f789e103b402568d05ff292f4ca48495e0e98_2 phases=1 bus1=node_403649049.2.4 conn=wye kv=0.1270 pf=1 pmpp=1.97 kva=1.97 irradiance=1 temperature=25 %cutin=20 %cutout=20 effcurve=MyEff P-TCurve=MyPvsT Daily=IRRAD_DIA TDaily=TEMP_DIA
New PVSystem.GD_187c465ff8e7905f2ff16451706f789e103b402568d05ff292f4ca48495e0e98_3 phases=1 bus1=node_403649049.3.4 conn=wye kv=0.1270 pf=1 pmpp=1.97 kva=1.97 irradiance=1 temperature=25 %cutin=20 %cutout=20 effcurve=MyEff P-TCurve=MyPvsT Daily=IRRAD_DIA TDaily=TEMP_DIA
New PVSystem.GD_e22b9b873163b5aad414d80e19f23d19516e198b5b1cddc68f0567d959287964_1 phases=1 bus1=node_414123982.1.4 conn=wye kv=0.1270 pf=1 pmpp=0.81 kva=0.81 irradiance=1 temperature=25 %cutin=20 %cutout=20 effcurve=MyEff P-TCurve=MyPvsT Daily=IRRAD_DIA TDaily=TEMP_DIA
New PVSystem.GD_e22b9b873163b5aad414d80e19f23d19516e198b5b1cddc68f0567d959287964_2 phases=1 bus1=node_414123982.2.4 conn=wye kv=0.1270 pf=1 pmpp=0.81 kva=0.81 irradiance=1 temperature=25 %cutin=20 %cutout=20 effcurve=MyEff P-TCurve=MyPvsT Daily=IRRAD_DIA TDaily=TEMP_DIA
New PVSystem.GD_e22b9b873163b5aad414d80e19f23d19516e198b5b1cddc68f0567d959287964_3 phases=1 bus1=node_414123982.3.4 conn=wye kv=0.1270 pf=1 pmpp=0.81 kva=0.81 irradiance=1 temperature=25 %cutin=20 %cutout=20 effcurve=MyEff P-TCurve=MyPvsT Daily=IRRAD_DIA TDaily=TEMP_DIA
New PVSystem.GD_9ca4db3db9c320d26424125df291b45968a90d9161e341cf375b1ac387e98de3_1 phases=1 bus1=node_414123982.1.4 conn=wye kv=0.1270 pf=1 pmpp=0.87 kva=0.87 irradiance=1 temperature=25 %cutin=20 %cutout=20 effcurve=MyEff P-TCurve=MyPvsT Daily=IRRAD_DIA TDaily=TEMP_DIA
New PVSystem.GD_9ca4db3db9c320d26424125df291b45968a90d9161e341cf375b1ac387e98de3_2 phases=1 bus1=node_414123982.2.4 conn=wye kv=0.1270 pf=1 pmpp=0.87 kva=0.87 irradiance=1 temperature=25 %cutin=20 %cutout=20 effcurve=MyEff P-TCurve=MyPvsT Daily=IRRAD_DIA TDaily=TEMP_DIA
New PVSystem.GD_9ca4db3db9c320d26424125df291b45968a90d9161e341cf375b1ac387e98de3_3 phases=1 bus1=node_414123982.3.4 conn=wye kv=0.1270 pf=1 pmpp=0.87 kva=0.87 irradiance=1 temperature=25 %cutin=20 %cutout=20 effcurve=MyEff P-TCurve=MyPvsT Daily=IRRAD_DIA TDaily=TEMP_DIA
New PVSystem.GD_2cb7c849a811178d6de15748316385b8f733ae63e4630d8127e7d4f6176759ff_1 phases=1 bus1=node_414123982.1.4 conn=wye kv=0.1270 pf=1 pmpp=2.12 kva=2.12 irradiance=1 temperature=25 %cutin=20 %cutout=20 effcurve=MyEff P-TCurve=MyPvsT Daily=IRRAD_DIA TDaily=TEMP_DIA
New PVSystem.GD_2cb7c849a811178d6de15748316385b8f733ae63e4630d8127e7d4f6176759ff_2 phases=1 bus1=node_414123982.2.4 conn=wye kv=0.1270 pf=1 pmpp=2.12 kva=2.12 irradiance=1 temperature=25 %cutin=20 %cutout=20 effcurve=MyEff P-TCurve=MyPvsT Daily=IRRAD_DIA TDaily=TEMP_DIA
New PVSystem.GD_2cb7c849a811178d6de15748316385b8f733ae63e4630d8127e7d4f6176759ff_3 phases=1 bus1=node_414123982.3.4 conn=wye kv=0.1270 pf=1 pmpp=2.12 kva=2.12 irradiance=1 temperature=25 %cutin=20 %cutout=20 effcurve=MyEff P-TCurve=MyPvsT Daily=IRRAD_DIA TDaily=TEMP_DIA
New PVSystem.GD_91d6f26c46f47172e878860a9f6389f44421afbbcad7e80da08ea9fa179b8d26_1 phases=1 bus1=node_403579394.1.4 conn=wye kv=0.1270 pf=1 pmpp=0.86 kva=0.86 irradiance=1 temperature=25 %cutin=20 %cutout=20 effcurve=MyEff P-TCurve=MyPvsT Daily=IRRAD_DIA TDaily=TEMP_DIA
New PVSystem.GD_91d6f26c46f47172e878860a9f6389f44421afbbcad7e80da08ea9fa179b8d26_2 phases=1 bus1=node_403579394.2.4 conn=wye kv=0.1270 pf=1 pmpp=0.86 kva=0.86 irradiance=1 temperature=25 %cutin=20 %cutout=20 effcurve=MyEff P-TCurve=MyPvsT Daily=IRRAD_DIA TDaily=TEMP_DIA
New PVSystem.GD_91d6f26c46f47172e878860a9f6389f44421afbbcad7e80da08ea9fa179b8d26_3 phases=1 bus1=node_403579394.3.4 conn=wye kv=0.1270 pf=1 pmpp=0.86 kva=0.86 irradiance=1 temperature=25 %cutin=20 %cutout=20 effcurve=MyEff P-TCurve=MyPvsT Daily=IRRAD_DIA TDaily=TEMP_DIA
New PVSystem.GD_e1c4a104d1059f0fb2c5fdf85fabfb3b7d6da9e823a7c976b92e83a4d7858d3c_1 phases=1 bus1=node_414100343.1.4 conn=wye kv=0.1270 pf=1 pmpp=3.70 kva=3.70 irradiance=1 temperature=25 %cutin=20 %cutout=20 effcurve=MyEff P-TCurve=MyPvsT Daily=IRRAD_DIA TDaily=TEMP_DIA
New PVSystem.GD_e1c4a104d1059f0fb2c5fdf85fabfb3b7d6da9e823a7c976b92e83a4d7858d3c_2 phases=1 bus1=node_414100343.2.4 conn=wye kv=0.1270 pf=1 pmpp=3.70 kva=3.70 irradiance=1 temperature=25 %cutin=20 %cutout=20 effcurve=MyEff P-TCurve=MyPvsT Daily=IRRAD_DIA TDaily=TEMP_DIA
New PVSystem.GD_e1c4a104d1059f0fb2c5fdf85fabfb3b7d6da9e823a7c976b92e83a4d7858d3c_3 phases=1 bus1=node_414100343.3.4 conn=wye kv=0.1270 pf=1 pmpp=3.70 kva=3.70 irradiance=1 temperature=25 %cutin=20 %cutout=20 effcurve=MyEff P-TCurve=MyPvsT Daily=IRRAD_DIA TDaily=TEMP_DIA
New PVSystem.GD_862884e9a94ec225d19398c6f3daa68e89ca0e8503d592d4b3d214cb13c6b0be_1 phases=1 bus1=node_403649796.1.4 conn=wye kv=0.1270 pf=1 pmpp=0.52 kva=0.52 irradiance=1 temperature=25 %cutin=20 %cutout=20 effcurve=MyEff P-TCurve=MyPvsT Daily=IRRAD_DIA TDaily=TEMP_DIA
New PVSystem.GD_862884e9a94ec225d19398c6f3daa68e89ca0e8503d592d4b3d214cb13c6b0be_2 phases=1 bus1=node_403649796.2.4 conn=wye kv=0.1270 pf=1 pmpp=0.52 kva=0.52 irradiance=1 temperature=25 %cutin=20 %cutout=20 effcurve=MyEff P-TCurve=MyPvsT Daily=IRRAD_DIA TDaily=TEMP_DIA
New PVSystem.GD_862884e9a94ec225d19398c6f3daa68e89ca0e8503d592d4b3d214cb13c6b0be_3 phases=1 bus1=node_403649796.3.4 conn=wye kv=0.1270 pf=1 pmpp=0.52 kva=0.52 irradiance=1 temperature=25 %cutin=20 %cutout=20 effcurve=MyEff P-TCurve=MyPvsT Daily=IRRAD_DIA TDaily=TEMP_DIA
New PVSystem.GD_134fb0a2e8b9cf755403ac3adaac2ae4989b220bfab31d79b0aa09cf1369a89b_1 phases=1 bus1=node_403649796.1.4 conn=wye kv=0.1270 pf=1 pmpp=1.23 kva=1.23 irradiance=1 temperature=25 %cutin=20 %cutout=20 effcurve=MyEff P-TCurve=MyPvsT Daily=IRRAD_DIA TDaily=TEMP_DIA
New PVSystem.GD_134fb0a2e8b9cf755403ac3adaac2ae4989b220bfab31d79b0aa09cf1369a89b_2 phases=1 bus1=node_403649796.2.4 conn=wye kv=0.1270 pf=1 pmpp=1.23 kva=1.23 irradiance=1 temperature=25 %cutin=20 %cutout=20 effcurve=MyEff P-TCurve=MyPvsT Daily=IRRAD_DIA TDaily=TEMP_DIA
New PVSystem.GD_134fb0a2e8b9cf755403ac3adaac2ae4989b220bfab31d79b0aa09cf1369a89b_3 phases=1 bus1=node_403649796.3.4 conn=wye kv=0.1270 pf=1 pmpp=1.23 kva=1.23 irradiance=1 temperature=25 %cutin=20 %cutout=20 effcurve=MyEff P-TCurve=MyPvsT Daily=IRRAD_DIA TDaily=TEMP_DIA
New PVSystem.GD_2d5aacd7abe04ec6da41e09e1edd07cb82f34dde0c14e12d9ad2c23489f48778_1 phases=1 bus1=node_414122032.1.4 conn=wye kv=0.1270 pf=1 pmpp=0.73 kva=0.73 irradiance=1 temperature=25 %cutin=20 %cutout=20 effcurve=MyEff P-TCurve=MyPvsT Daily=IRRAD_DIA TDaily=TEMP_DIA
New PVSystem.GD_2d5aacd7abe04ec6da41e09e1edd07cb82f34dde0c14e12d9ad2c23489f48778_2 phases=1 bus1=node_414122032.2.4 conn=wye kv=0.1270 pf=1 pmpp=0.73 kva=0.73 irradiance=1 temperature=25 %cutin=20 %cutout=20 effcurve=MyEff P-TCurve=MyPvsT Daily=IRRAD_DIA TDaily=TEMP_DIA
New PVSystem.GD_2d5aacd7abe04ec6da41e09e1edd07cb82f34dde0c14e12d9ad2c23489f48778_3 phases=1 bus1=node_414122032.3.4 conn=wye kv=0.1270 pf=1 pmpp=0.73 kva=0.73 irradiance=1 temperature=25 %cutin=20 %cutout=20 effcurve=MyEff P-TCurve=MyPvsT Daily=IRRAD_DIA TDaily=TEMP_DIA
New PVSystem.GD_fd976ba6f0cc1456cde1929761ba833c74257ff65e7b9c5a7893e8a9a5a66f07_1 phases=1 bus1=node_403579388.1.4 conn=wye kv=0.1270 pf=1 pmpp=0.72 kva=0.72 irradiance=1 temperature=25 %cutin=20 %cutout=20 effcurve=MyEff P-TCurve=MyPvsT Daily=IRRAD_DIA TDaily=TEMP_DIA
New PVSystem.GD_fd976ba6f0cc1456cde1929761ba833c74257ff65e7b9c5a7893e8a9a5a66f07_2 phases=1 bus1=node_403579388.2.4 conn=wye kv=0.1270 pf=1 pmpp=0.72 kva=0.72 irradiance=1 temperature=25 %cutin=20 %cutout=20 effcurve=MyEff P-TCurve=MyPvsT Daily=IRRAD_DIA TDaily=TEMP_DIA
New PVSystem.GD_fd976ba6f0cc1456cde1929761ba833c74257ff65e7b9c5a7893e8a9a5a66f07_3 phases=1 bus1=node_403579388.3.4 conn=wye kv=0.1270 pf=1 pmpp=0.72 kva=0.72 irradiance=1 temperature=25 %cutin=20 %cutout=20 effcurve=MyEff P-TCurve=MyPvsT Daily=IRRAD_DIA TDaily=TEMP_DIA
...
